Test_Network/condensed/network_18/Feeder_7/Lines.txt
New Line.LINE38 Bus1=38 Bus2=39 phases=3 Linecode=2c_.0225 Length=6.9688 Units=m
New Line.LINE40 Bus1=39 Bus2=41 phases=3 Linecode=2c_.0225 Length=2.0364 Units=m
New Line.LINE44 Bus1=41 Bus2=45 phases=3 Linecode=2c_.0225 Length=3.6469 Units=m
New Line.LINE57 Bus1=53 Bus2=58 phases=3 Linecode=4c_.1 Length=0.8918 Units=m
New Line.LINE63 Bus1=58 Bus2=64 phases=3 Linecode=4c_.1 Length=34.1742 Units=m
New Line.LINE92 Bus1=85 Bus2=93 phases=3 Linecode=4c_.1 Length=0.58856 Units=m
New Line.LINE126 Bus1=116 Bus2=127 phases=3 Linecode=2c_.0225_UA Length=3.1556 Units=m
New Line.LINE127 Bus1=116 Bus2=128 phases=3 Linecode=2c_.0225_UA Length=2.1758 Units=m
New Line.LINE140 Bus1=127 Bus2=141 phases=3 Linecode=3c_.03_UA Length=3.7148 Units=m
New Line.LINE142 Bus1=128 Bus2=143 phases=3 Linecode=3c_.03_UA Length=3.3616 Units=m
New Line.LINE148 Bus1=134 Bus2=149 phases=3 Linecode=2c_.0225_UA Length=2.3589 Units=m
New Line.LINE149 Bus1=134 Bus2=150 phases=3 Linecode=2c_.0225_UA Length=2.7389 Units=m
New Line.LINE163 Bus1=149 Bus2=164 phases=3 Linecode=3c_.03_UA Length=2.5717 Units=m
New Line.LINE165 Bus1=150 Bus2=166 phases=3 Linecode=3c_.03_UA Length=2.3109 Units=m
New Line.LINE179 Bus1=167 Bus2=180 phases=3 Linecode=4c_.1 Length=0.97646 Units=m
New Line.LINE238 Bus1=223 Bus2=239 phases=3 Linecode=4c_.1 Length=12.3661 Units=m
New Line.LINE401 Bus1=392 Bus2=402 phases=3 Linecode=2c_.0225 Length=3.2101 Units=m
New Line.LINE410 Bus1=400 Bus2=411 phases=3 Linecode=2c_.0225 Length=1.9983 Units=m
New Line.LINE446 Bus1=437 Bus2=447 phases=3 Linecode=2c_.0225 Length=1.1981 Units=m
New Line.LINE525 Bus1=518 Bus2=526 phases=3 Linecode=25_PSC Length=3.9932 Units=m
New Line.LINE541 Bus1=535 Bus2=542 phases=3 Linecode=2c_.0225 Length=2.1252 Units=m
New Line.LINE584 Bus1=581 Bus2=585 phases=3 Linecode=25_PSC Length=3.3831 Units=m
New Line.LINECmpd_0 Bus1=437 Bus2=564 phases=3 Linecode=2c_.0225 Length=14.27753 Units=m
New Line.LINECmpd_1 Bus1=535 Bus2=631 phases=3 Linecode=2c_.0225 Length=14.23109 Units=m
New Line.LINECmpd_2 Bus1=239 Bus2=518 phases=3 Linecode=25_PSC Length=11.40961 Units=m
New Line.LINECmpd_3 Bus1=1 Bus2=38 phases=3 Linecode=4c_.2 Length=41.289922 Units=m
New Line.LINECmpd_4 Bus1=127 Bus2=342 phases=3 Linecode=2c_.0225_UA Length=16.818098 Units=m
New Line.LINECmpd_5 Bus1=518 Bus2=616 phases=3 Linecode=25_PSC Length=10.074251 Units=m
New Line.LINECmpd_6 Bus1=41 Bus2=391 phases=3 Linecode=2c_.0225 Length=11.896752 Units=m
New Line.LINECmpd_7 Bus1=53 Bus2=264 phases=3 Linecode=2c_.0225 Length=17.898644 Units=m
New Line.LINECmpd_8 Bus1=273 Bus2=516 phases=3 Linecode=25_SAC_PC Length=7.003636 Units=m
New Line.LINECmpd_9 Bus1=93 Bus2=437 phases=3 Linecode=2c_.0225 Length=22.76274 Units=m
New Line.LINECmpd_10 Bus1=85 Bus2=400 phases=3 Linecode=2c_.0225 Length=21.02044 Units=m
New Line.LINECmpd_11 Bus1=58 Bus2=392 phases=3 Linecode=2c_.0225 Length=23.828955 Units=m
New Line.LINECmpd_12 Bus1=400 Bus2=528 phases=3 Linecode=2c_.0225 Length=13.073712 Units=m
New Line.LINECmpd_13 Bus1=239 Bus2=581 phases=3 Linecode=25_PSC Length=15.310073 Units=m
New Line.LINECmpd_14 Bus1=128 Bus2=328 phases=3 Linecode=2c_.0225_UA Length=17.127107 Units=m
New Line.LINECmpd_15 Bus1=392 Bus2=503 phases=3 Linecode=2c_.0225 Length=17.744232 Units=m
New Line.LINECmpd_16 Bus1=180 Bus2=496 phases=3 Linecode=2c_.0225 Length=20.842429 Units=m
New Line.LINECmpd_17 Bus1=167 Bus2=535 phases=3 Linecode=2c_.0225 Length=21.166841 Units=m
New Line.LINECmpd_18 Bus1=39 Bus2=187 phases=3 Linecode=2c_.0225 Length=20.22894 Units=m
New Line.LINECmpd_19 Bus1=496 Bus2=555 phases=3 Linecode=2c_.0225 Length=3.5641 Units=m
New Line.LINECmpd_20 Bus1=149 Bus2=370 phases=3 Linecode=2c_.0225_UA Length=17.10978 Units=m
New Line.LINECmpd_21 Bus1=273 Bus2=508 phases=3 Linecode=35_SAC_PC Length=14.691803 Units=m
New Line.LINECmpd_22 Bus1=496 Bus2=561 phases=3 Linecode=2c_.0225 Length=9.774864 Units=m
New Line.LINECmpd_23 Bus1=150 Bus2=382 phases=3 Linecode=2c_.0225_UA Length=17.138255 Units=m
New Line.LINECmpd_24 Bus1=112 Bus2=167 phases=3 Linecode=4c_.1 Length=28.67518 Units=m
New Line.LINECmpd_25 Bus1=180 Bus2=223 phases=3 Linecode=4c_.1 Length=33.85153 Units=m
New Line.LINECmpd_26 Bus1=47 Bus2=53 phases=3 Linecode=4c_.1 Length=10.0016 Units=m
New Line.LINECmpd_27 Bus1=581 Bus2=635 phases=3 Linecode=25_PSC Length=9.739507 Units=m
New Line.LINECmpd_28 Bus1=38 Bus2=47 phases=3 Linecode=4c_.2 Length=15.53273 Units=m
New Line.LINECmpd_29 Bus1=223 Bus2=273 phases=3 Linecode=25_SAC_PC Length=14.7959 Units=m
New Line.LINECmpd_30 Bus1=64 Bus2=116 phases=3 Linecode=2c_.0225_UA Length=13.810354 Units=m
New Line.LINECmpd_31 Bus1=112 Bus2=134 phases=3 Linecode=2c_.0225_UA Length=13.3801 Units=m
New Line.LINECmpd_32 Bus1=93 Bus2=112 phases=3 Linecode=4c_.1 Length=34.9128 Units=m
New Line.LINECmpd_33 Bus1=64 Bus2=85 phases=3 Linecode=4c_.1 Length=29.05785 Units=m
